#======================================================================

# CRYSTAL DATA

#----------------------------------------------------------------------

data_VESTA_phase_1


_chemical_name_common                  'Layer                                 '
_cell_length_a                         16.21730
_cell_length_b                         9.38290
_cell_length_c                         35.75960
_cell_angle_alpha                      90
_cell_angle_beta                       90
_cell_angle_gamma                      90.00050
_space_group_name_H-M_alt              'P 1'
_space_group_IT_number                 1

loop_
_space_group_symop_operation_xyz
   'x, y, z'

loop_
   _atom_site_label
   _atom_site_occupancy
   _atom_site_fract_x
   _atom_site_fract_y
   _atom_site_fract_z
   _atom_site_adp_type
   _atom_site_B_iso_or_equiv
   _atom_site_type_symbol
   C1         1.0     0.024706      0.416376      0.255647     Biso  1.000000 C
   C2         1.0     0.024706     -0.083624      0.255647     Biso  1.000000 C
   C3         1.0     0.524706      0.416376      0.255647     Biso  1.000000 C
   C4         1.0     0.524706     -0.083624      0.255647     Biso  1.000000 C
   C5         1.0     0.274641     -0.074053      0.253835     Biso  1.000000 C
   C6         1.0     0.274641      0.425947      0.253835     Biso  1.000000 C
   C7         1.0     0.774641     -0.074053      0.253835     Biso  1.000000 C
   C8         1.0     0.774641      0.425947      0.253835     Biso  1.000000 C
   C9         1.0     0.138034      0.046919      0.240788     Biso  1.000000 C
   C10        1.0     0.138034      0.546919      0.240788     Biso  1.000000 C
   C11        1.0     0.638034      0.046919      0.240788     Biso  1.000000 C
   C12        1.0     0.638034      0.546919      0.240788     Biso  1.000000 C
   C13        1.0     0.392457      0.051419      0.261104     Biso  1.000000 C
   C14        1.0     0.392457      0.551419      0.261104     Biso  1.000000 C
   C15        1.0     0.892457      0.051419      0.261104     Biso  1.000000 C
   C16        1.0     0.892457      0.551419      0.261104     Biso  1.000000 C
   C17        1.0     0.142632      0.291333      0.248491     Biso  1.000000 C
   C18        1.0     0.142632      0.791333      0.248491     Biso  1.000000 C
   C19        1.0     0.642632      0.291333      0.248491     Biso  1.000000 C
   C20        1.0     0.642632      0.791333      0.248491     Biso  1.000000 C
   C21        1.0     0.388070      0.295459      0.268600     Biso  1.000000 C
   C22        1.0     0.388070      0.795459      0.268600     Biso  1.000000 C
   C23        1.0     0.888070      0.295459      0.268600     Biso  1.000000 C
   C24        1.0     0.888070      0.795459      0.268600     Biso  1.000000 C
   C25        1.0     0.016573      0.343581      0.148302     Biso  1.000000 C
   C26        1.0     0.266880      0.599632      0.155844     Biso  1.000000 C
   C27        1.0     0.766880      0.599632      0.155844     Biso  1.000000 C
   C28        1.0     0.016573      0.843581      0.148302     Biso  1.000000 C
   C29        1.0     0.898717      0.461005      0.158177     Biso  1.000000 C
   C30        1.0     0.151666      0.718890      0.140443     Biso  1.000000 C
   C31        1.0     0.651666      0.718890      0.140443     Biso  1.000000 C
   C32        1.0     0.898717      0.961005      0.158177     Biso  1.000000 C
   C33        1.0     0.901581      0.224106      0.164243     Biso  1.000000 C
   C34        1.0     0.148767      0.482127      0.146188     Biso  1.000000 C
   C35        1.0     0.648767      0.482127      0.146188     Biso  1.000000 C
   C36        1.0     0.901581      0.724106      0.164243     Biso  1.000000 C
   C37        1.0     0.516573      0.843581      0.148302     Biso  1.000000 C
   C38        1.0     0.766880      0.099632      0.155844     Biso  1.000000 C
   C39        1.0     0.266880      0.099632      0.155844     Biso  1.000000 C
   C40        1.0     0.516573      0.343581      0.148302     Biso  1.000000 C
   C41        1.0     0.398717      0.961005      0.158177     Biso  1.000000 C
   C42        1.0     0.651666      0.218890      0.140443     Biso  1.000000 C
   C43        1.0     0.151666      0.218890      0.140443     Biso  1.000000 C
   C44        1.0     0.398717      0.461005      0.158177     Biso  1.000000 C
   C45        1.0     0.401581      0.724106      0.164243     Biso  1.000000 C
   C46        1.0     0.648767      0.982127      0.146188     Biso  1.000000 C
   C47        1.0     0.148767      0.982127      0.146188     Biso  1.000000 C
   C48        1.0     0.401581      0.224106      0.164243     Biso  1.000000 C
   N1         1.0     0.177204      0.173112      0.236756     Biso  1.000000 N
   N2         1.0     0.177204      0.673112      0.236756     Biso  1.000000 N
   N3         1.0     0.677204      0.173112      0.236756     Biso  1.000000 N
   N4         1.0     0.677204      0.673112      0.236756     Biso  1.000000 N
   N5         1.0     0.427586      0.169794      0.272377     Biso  1.000000 N
   N6         1.0     0.427586      0.669794      0.272377     Biso  1.000000 N
   N7         1.0     0.927586      0.169794      0.272377     Biso  1.000000 N
   N8         1.0     0.927586      0.669794      0.272377     Biso  1.000000 N
   N9         1.0     0.187660     -0.077355      0.246296     Biso  1.000000 N
   N10        1.0     0.187660      0.422645      0.246296     Biso  1.000000 N
   N11        1.0     0.687660     -0.077355      0.246296     Biso  1.000000 N
   N12        1.0     0.687660      0.422645      0.246296     Biso  1.000000 N
   N13        1.0     0.437739      0.420181      0.263514     Biso  1.000000 N
   N14        1.0     0.437739     -0.079819      0.263514     Biso  1.000000 N
   N15        1.0     0.937739      0.420181      0.263514     Biso  1.000000 N
   N16        1.0     0.937739     -0.079819      0.263514     Biso  1.000000 N
   N17        1.0     0.056487      0.033931      0.239455     Biso  1.000000 N
   N18        1.0     0.056487      0.533931      0.239455     Biso  1.000000 N
   N19        1.0     0.556487      0.033931      0.239455     Biso  1.000000 N
   N20        1.0     0.556487      0.533931      0.239455     Biso  1.000000 N
   N21        1.0     0.315844      0.042723      0.246958     Biso  1.000000 N
   N22        1.0     0.315844      0.542723      0.246958     Biso  1.000000 N
   N23        1.0     0.815844      0.042723      0.246958     Biso  1.000000 N
   N24        1.0     0.815844      0.542723      0.246958     Biso  1.000000 N
   N25        1.0     0.066153      0.300241      0.262941     Biso  1.000000 N
   N26        1.0     0.066153      0.800241      0.262941     Biso  1.000000 N
   N27        1.0     0.566153      0.300241      0.262941     Biso  1.000000 N
   N28        1.0     0.566153      0.800241      0.262941     Biso  1.000000 N
   N29        1.0     0.306527      0.308080      0.269633     Biso  1.000000 N
   N30        1.0     0.306527      0.808080      0.269633     Biso  1.000000 N
   N31        1.0     0.806527      0.308080      0.269633     Biso  1.000000 N
   N32        1.0     0.806527      0.808080      0.269633     Biso  1.000000 N
   N33        1.0     0.861236      0.345468      0.171565     Biso  1.000000 N
   N34        1.0     0.110685      0.598071      0.133771     Biso  1.000000 N
   N35        1.0     0.610685      0.598071      0.133771     Biso  1.000000 N
   N36        1.0     0.861236      0.845468      0.171565     Biso  1.000000 N
   N37        1.0     0.105544      0.348065      0.143193     Biso  1.000000 N
   N38        1.0     0.355603      0.595249      0.161164     Biso  1.000000 N
   N39        1.0     0.855603      0.595249      0.161164     Biso  1.000000 N
   N40        1.0     0.105544      0.848065      0.143193     Biso  1.000000 N
   N41        1.0     0.972348      0.461150      0.141076     Biso  1.000000 N
   N42        1.0     0.233811      0.721325      0.143897     Biso  1.000000 N
   N43        1.0     0.733811      0.721325      0.143897     Biso  1.000000 N
   N44        1.0     0.972348      0.961150      0.141076     Biso  1.000000 N
   N45        1.0     0.983525      0.221967      0.160262     Biso  1.000000 N
   N46        1.0     0.223102      0.481424      0.162630     Biso  1.000000 N
   N47        1.0     0.723102      0.481424      0.162630     Biso  1.000000 N
   N48        1.0     0.983525      0.721967      0.160262     Biso  1.000000 N
   N49        1.0     0.361236      0.845468      0.171565     Biso  1.000000 N
   N50        1.0     0.610685      0.098070      0.133771     Biso  1.000000 N
   N51        1.0     0.110685      0.098070      0.133771     Biso  1.000000 N
   N52        1.0     0.361236      0.345468      0.171565     Biso  1.000000 N
   N53        1.0     0.605544      0.848065      0.143193     Biso  1.000000 N
   N54        1.0     0.855603      0.095249      0.161164     Biso  1.000000 N
   N55        1.0     0.355603      0.095249      0.161164     Biso  1.000000 N
   N56        1.0     0.605544      0.348065      0.143193     Biso  1.000000 N
   N57        1.0     0.472348      0.961150      0.141076     Biso  1.000000 N
   N58        1.0     0.733811      0.221325      0.143897     Biso  1.000000 N
   N59        1.0     0.233811      0.221325      0.143897     Biso  1.000000 N
   N60        1.0     0.472348      0.461150      0.141076     Biso  1.000000 N
   N61        1.0     0.483525      0.721967      0.160262     Biso  1.000000 N
   N62        1.0     0.723102      0.981424      0.162630     Biso  1.000000 N
   N63        1.0     0.223102      0.981424      0.162630     Biso  1.000000 N
   N64        1.0     0.483525      0.221967      0.160262     Biso  1.000000 N
